
Version,
  23.1;                                   !- Version Identifier

Timestep,
  6;                                      !- Number of Timesteps per Hour

LifeCycleCost:Parameters,
  Life Cycle Cost Parameters,             !- Name
  EndOfYear,                              !- Discounting Convention
  ConstantDollar,                         !- Inflation Approach
  0.03,                                   !- Real Discount Rate
  ,                                       !- Nominal Discount Rate
  ,                                       !- Inflation
  ,                                       !- Base Date Month
  2011,                                   !- Base Date Year
  ,                                       !- Service Date Month
  2011,                                   !- Service Date Year
  25,                                     !- Length of Study Period in Years
  ,                                       !- Tax rate
  None;                                   !- Depreciation Method

LifeCycleCost:UsePriceEscalation,
  U.S. Avg  Commercial-Electricity,       !- Name
  Electricity,                            !- Resource
  2011,                                   !- Escalation Start Year
  January,                                !- Escalation Start Month
  0.9838,                                 !- Year Escalation 1
  0.9730,                                 !- Year Escalation 2
  0.9632,                                 !- Year Escalation 3
  0.9611,                                 !- Year Escalation 4
  0.9571,                                 !- Year Escalation 5
  0.9553,                                 !- Year Escalation 6
  0.9539,                                 !- Year Escalation 7
  0.9521,                                 !- Year Escalation 8
  0.9546,                                 !- Year Escalation 9
  0.9550,                                 !- Year Escalation 10
  0.9553,                                 !- Year Escalation 11
  0.9564,                                 !- Year Escalation 12
  0.9575,                                 !- Year Escalation 13
  0.9596,                                 !- Year Escalation 14
  0.9618,                                 !- Year Escalation 15
  0.9614,                                 !- Year Escalation 16
  0.9618,                                 !- Year Escalation 17
  0.9618,                                 !- Year Escalation 18
  0.9593,                                 !- Year Escalation 19
  0.9589,                                 !- Year Escalation 20
  0.9607,                                 !- Year Escalation 21
  0.9625,                                 !- Year Escalation 22
  0.9650,                                 !- Year Escalation 23
  0.9708,                                 !- Year Escalation 24
  0.9751,                                 !- Year Escalation 25
  0.9762,                                 !- Year Escalation 26
  0.9766,                                 !- Year Escalation 27
  0.9766,                                 !- Year Escalation 28
  0.9769,                                 !- Year Escalation 29
  0.9773;                                 !- Year Escalation 30

LifeCycleCost:UsePriceEscalation,
  U.S. Avg  Commercial-Distillate Oil,    !- Name
  FuelOilNo1,                             !- Resource
  2011,                                   !- Escalation Start Year
  January,                                !- Escalation Start Month
  0.9714,                                 !- Year Escalation 1
  0.9730,                                 !- Year Escalation 2
  0.9942,                                 !- Year Escalation 3
  1.0164,                                 !- Year Escalation 4
  1.0541,                                 !- Year Escalation 5
  1.0928,                                 !- Year Escalation 6
  1.1267,                                 !- Year Escalation 7
  1.1580,                                 !- Year Escalation 8
  1.1792,                                 !- Year Escalation 9
  1.1967,                                 !- Year Escalation 10
  1.2200,                                 !- Year Escalation 11
  1.2333,                                 !- Year Escalation 12
  1.2566,                                 !- Year Escalation 13
  1.2709,                                 !- Year Escalation 14
  1.2826,                                 !- Year Escalation 15
  1.2985,                                 !- Year Escalation 16
  1.3102,                                 !- Year Escalation 17
  1.3250,                                 !- Year Escalation 18
  1.3261,                                 !- Year Escalation 19
  1.3282,                                 !- Year Escalation 20
  1.3324,                                 !- Year Escalation 21
  1.3356,                                 !- Year Escalation 22
  1.3431,                                 !- Year Escalation 23
  1.3510,                                 !- Year Escalation 24
  1.3568,                                 !- Year Escalation 25
  1.3606,                                 !- Year Escalation 26
  1.3637,                                 !- Year Escalation 27
  1.3674,                                 !- Year Escalation 28
  1.3706,                                 !- Year Escalation 29
  1.3743;                                 !- Year Escalation 30

LifeCycleCost:UsePriceEscalation,
  U.S. Avg  Commercial-Residual Oil,      !- Name
  FuelOilNo2,                             !- Resource
  2011,                                   !- Escalation Start Year
  January,                                !- Escalation Start Month
  0.8469,                                 !- Year Escalation 1
  0.8257,                                 !- Year Escalation 2
  0.8681,                                 !- Year Escalation 3
  0.8988,                                 !- Year Escalation 4
  0.9289,                                 !- Year Escalation 5
  0.9604,                                 !- Year Escalation 6
  0.9897,                                 !- Year Escalation 7
  1.0075,                                 !- Year Escalation 8
  1.0314,                                 !- Year Escalation 9
  1.0554,                                 !- Year Escalation 10
  1.0861,                                 !- Year Escalation 11
  1.1278,                                 !- Year Escalation 12
  1.1497,                                 !- Year Escalation 13
  1.1620,                                 !- Year Escalation 14
  1.1743,                                 !- Year Escalation 15
  1.1852,                                 !- Year Escalation 16
  1.1948,                                 !- Year Escalation 17
  1.2037,                                 !- Year Escalation 18
  1.2071,                                 !- Year Escalation 19
  1.2119,                                 !- Year Escalation 20
  1.2139,                                 !- Year Escalation 21
  1.2194,                                 !- Year Escalation 22
  1.2276,                                 !- Year Escalation 23
  1.2365,                                 !- Year Escalation 24
  1.2420,                                 !- Year Escalation 25
  1.2461,                                 !- Year Escalation 26
  1.2509,                                 !- Year Escalation 27
  1.2550,                                 !- Year Escalation 28
  1.2591,                                 !- Year Escalation 29
  1.2638;                                 !- Year Escalation 30

LifeCycleCost:UsePriceEscalation,
  U.S. Avg  Commercial-Natural gas,       !- Name
  NaturalGas,                             !- Resource
  2011,                                   !- Escalation Start Year
  January,                                !- Escalation Start Month
  0.9823,                                 !- Year Escalation 1
  0.9557,                                 !- Year Escalation 2
  0.9279,                                 !- Year Escalation 3
  0.9257,                                 !- Year Escalation 4
  0.9346,                                 !- Year Escalation 5
  0.9412,                                 !- Year Escalation 6
  0.9512,                                 !- Year Escalation 7
  0.9645,                                 !- Year Escalation 8
  0.9856,                                 !- Year Escalation 9
  1.0067,                                 !- Year Escalation 10
  1.0222,                                 !- Year Escalation 11
  1.0410,                                 !- Year Escalation 12
  1.0610,                                 !- Year Escalation 13
  1.0787,                                 !- Year Escalation 14
  1.0942,                                 !- Year Escalation 15
  1.1098,                                 !- Year Escalation 16
  1.1220,                                 !- Year Escalation 17
  1.1308,                                 !- Year Escalation 18
  1.1386,                                 !- Year Escalation 19
  1.1486,                                 !- Year Escalation 20
  1.1619,                                 !- Year Escalation 21
  1.1763,                                 !- Year Escalation 22
  1.1918,                                 !- Year Escalation 23
  1.2118,                                 !- Year Escalation 24
  1.2284,                                 !- Year Escalation 25
  1.2439,                                 !- Year Escalation 26
  1.2605,                                 !- Year Escalation 27
  1.2772,                                 !- Year Escalation 28
  1.2938,                                 !- Year Escalation 29
  1.3115;                                 !- Year Escalation 30

LifeCycleCost:UsePriceEscalation,
  U.S. Avg  Commercial-Coal,              !- Name
  Coal,                                   !- Resource
  2011,                                   !- Escalation Start Year
  January,                                !- Escalation Start Month
  0.9970,                                 !- Year Escalation 1
  1.0089,                                 !- Year Escalation 2
  1.0089,                                 !- Year Escalation 3
  0.9941,                                 !- Year Escalation 4
  0.9941,                                 !- Year Escalation 5
  1.0000,                                 !- Year Escalation 6
  1.0030,                                 !- Year Escalation 7
  1.0059,                                 !- Year Escalation 8
  1.0089,                                 !- Year Escalation 9
  1.0119,                                 !- Year Escalation 10
  1.0148,                                 !- Year Escalation 11
  1.0178,                                 !- Year Escalation 12
  1.0208,                                 !- Year Escalation 13
  1.0267,                                 !- Year Escalation 14
  1.0297,                                 !- Year Escalation 15
  1.0356,                                 !- Year Escalation 16
  1.0415,                                 !- Year Escalation 17
  1.0534,                                 !- Year Escalation 18
  1.0564,                                 !- Year Escalation 19
  1.0593,                                 !- Year Escalation 20
  1.0653,                                 !- Year Escalation 21
  1.0712,                                 !- Year Escalation 22
  1.0742,                                 !- Year Escalation 23
  1.0801,                                 !- Year Escalation 24
  1.0831,                                 !- Year Escalation 25
  1.0831,                                 !- Year Escalation 26
  1.0861,                                 !- Year Escalation 27
  1.0890,                                 !- Year Escalation 28
  1.0920,                                 !- Year Escalation 29
  1.0950;                                 !- Year Escalation 30

Building,
  Building 1,                             !- Name
  90,                                     !- North Axis {deg}
  ,                                       !- Terrain
  ,                                       !- Loads Convergence Tolerance Value {W}
  ,                                       !- Temperature Convergence Tolerance Value {deltaC}
  ,                                       !- Solar Distribution
  ,                                       !- Maximum Number of Warmup Days
  ;                                       !- Minimum Number of Warmup Days

Zone,
  Bedroom,                                !- Name
  -0,                                     !- Direction of Relative North {deg}
  12.2,                                   !- X Origin {m}
  0,                                      !- Y Origin {m}
  3,                                      !- Z Origin {m}
  ,                                       !- Type
  1,                                      !- Multiplier
  ,                                       !- Ceiling Height {m}
  ,                                       !- Volume {m3}
  ,                                       !- Floor Area {m2}
  ,                                       !- Zone Inside Convection Algorithm
  ,                                       !- Zone Outside Convection Algorithm
  Yes;                                    !- Part of Total Floor Area

Space,
  REC2,                                   !- Name
  Bedroom,                                !- Zone Name
  ,                                       !- Ceiling Height {m}
  ,                                       !- Volume {m3}
  ,                                       !- Floor Area {m2}
  189.1-2009 - Office - OpenOffice - CZ4-8; !- Space Type

SpaceList,
  189.1-2009 - Office - OpenOffice - CZ4-8, !- Name
  BAÑO_PA,                               !- Space Name 1
  BAÑO,                                  !- Space Name 2
  A_COMUN,                                !- Space Name 3
  REC3,                                   !- Space Name 4
  REC2,                                   !- Space Name 5
  REC1,                                   !- Space Name 6
  ESC_DA,                                 !- Space Name 7
  ACCESO;                                 !- Space Name 8

BuildingSurface:Detailed,
  Surface 46,                             !- Name
  Floor,                                  !- Surface Type
  Yeso_CAD_Yeso Reversed,                 !- Construction Name
  Bedroom,                                !- Zone Name
  REC2,                                   !- Space Name
  Surface,                                !- Outside Boundary Condition
  Surface 26,                             !- Outside Boundary Condition Object
  NoSun,                                  !- Sun Exposure
  NoWind,                                 !- Wind Exposure
  ,                                       !- View Factor to Ground
  ,                                       !- Number of Vertices
  0, 5, 0,                                !- X,Y,Z Vertex 1 {m}
  0, 0, 0,                                !- X,Y,Z Vertex 2 {m}
  -3.2, 0, 0,                             !- X,Y,Z Vertex 3 {m}
  -3.2, 5, 0;                             !- X,Y,Z Vertex 4 {m}

BuildingSurface:Detailed,
  Surface 47,                             !- Name
  Wall,                                   !- Surface Type
  Yeso_Poliestireno_Ladrillo_Yeso,        !- Construction Name
  Bedroom,                                !- Zone Name
  REC2,                                   !- Space Name
  Outdoors,                               !- Outside Boundary Condition
  ,                                       !- Outside Boundary Condition Object
  SunExposed,                             !- Sun Exposure
  WindExposed,                            !- Wind Exposure
  ,                                       !- View Factor to Ground
  ,                                       !- Number of Vertices
  -3.2, 0, 3,                             !- X,Y,Z Vertex 1 {m}
  -3.2, 0, 0,                             !- X,Y,Z Vertex 2 {m}
  0, 0, 0,                                !- X,Y,Z Vertex 3 {m}
  0, 0, 3;                                !- X,Y,Z Vertex 4 {m}

BuildingSurface:Detailed,
  Surface 48,                             !- Name
  Wall,                                   !- Surface Type
  Yeso_Poliestireno_Ladrillo_Yeso Reversed, !- Construction Name
  Bedroom,                                !- Zone Name
  REC2,                                   !- Space Name
  Surface,                                !- Outside Boundary Condition
  Surface 42,                             !- Outside Boundary Condition Object
  NoSun,                                  !- Sun Exposure
  NoWind,                                 !- Wind Exposure
  ,                                       !- View Factor to Ground
  ,                                       !- Number of Vertices
  -3.2, 3, 3,                             !- X,Y,Z Vertex 1 {m}
  -3.2, 3, 0,                             !- X,Y,Z Vertex 2 {m}
  -3.2, 0, 0,                             !- X,Y,Z Vertex 3 {m}
  -3.2, 0, 3;                             !- X,Y,Z Vertex 4 {m}

BuildingSurface:Detailed,
  Surface 49,                             !- Name
  Wall,                                   !- Surface Type
  Yeso_Poliestireno_Ladrillo_Yeso Reversed, !- Construction Name
  Bedroom,                                !- Zone Name
  REC2,                                   !- Space Name
  Surface,                                !- Outside Boundary Condition
  Surface 32,                             !- Outside Boundary Condition Object
  NoSun,                                  !- Sun Exposure
  NoWind,                                 !- Wind Exposure
  ,                                       !- View Factor to Ground
  ,                                       !- Number of Vertices
  -3.2, 5, 3,                             !- X,Y,Z Vertex 1 {m}
  -3.2, 5, 0,                             !- X,Y,Z Vertex 2 {m}
  -3.2, 3, 0,                             !- X,Y,Z Vertex 3 {m}
  -3.2, 3, 3;                             !- X,Y,Z Vertex 4 {m}

BuildingSurface:Detailed,
  Surface 50,                             !- Name
  Wall,                                   !- Surface Type
  Yeso_Poliestireno_Ladrillo_Yeso,        !- Construction Name
  Bedroom,                                !- Zone Name
  REC2,                                   !- Space Name
  Outdoors,                               !- Outside Boundary Condition
  ,                                       !- Outside Boundary Condition Object
  SunExposed,                             !- Sun Exposure
  WindExposed,                            !- Wind Exposure
  ,                                       !- View Factor to Ground
  ,                                       !- Number of Vertices
  0, 5, 3,                                !- X,Y,Z Vertex 1 {m}
  0, 5, 0,                                !- X,Y,Z Vertex 2 {m}
  -3.2, 5, 0,                             !- X,Y,Z Vertex 3 {m}
  -3.2, 5, 3;                             !- X,Y,Z Vertex 4 {m}

BuildingSurface:Detailed,
  Surface 51,                             !- Name
  Wall,                                   !- Surface Type
  Yeso_Poliestireno_Ladrillo_Yeso,        !- Construction Name
  Bedroom,                                !- Zone Name
  REC2,                                   !- Space Name
  Outdoors,                               !- Outside Boundary Condition
  ,                                       !- Outside Boundary Condition Object
  SunExposed,                             !- Sun Exposure
  WindExposed,                            !- Wind Exposure
  ,                                       !- View Factor to Ground
  ,                                       !- Number of Vertices
  0, 0, 3,                                !- X,Y,Z Vertex 1 {m}
  0, 0, 0,                                !- X,Y,Z Vertex 2 {m}
  0, 5, 0,                                !- X,Y,Z Vertex 3 {m}
  0, 5, 3;                                !- X,Y,Z Vertex 4 {m}

FenestrationSurface:Detailed,
  Sub Surface 12,                         !- Name
  Window,                                 !- Surface Type
  ASHRAE 189.1-2009 ExtWindow ClimateZone 1, !- Construction Name
  Surface 51,                             !- Building Surface Name
  ,                                       !- Outside Boundary Condition Object
  ,                                       !- View Factor to Ground
  ,                                       !- Frame and Divider Name
  ,                                       !- Multiplier
  ,                                       !- Number of Vertices
  0, 2, 2.2,                              !- X,Y,Z Vertex 1 {m}
  0, 2, 1,                                !- X,Y,Z Vertex 2 {m}
  0, 3, 1,                                !- X,Y,Z Vertex 3 {m}
  0, 3, 2.2;                              !- X,Y,Z Vertex 4 {m}

BuildingSurface:Detailed,
  Surface 52,                             !- Name
  Roof,                                   !- Surface Type
  Yeso_CAD_Yeso,                          !- Construction Name
  Bedroom,                                !- Zone Name
  REC2,                                   !- Space Name
  Outdoors,                               !- Outside Boundary Condition
  ,                                       !- Outside Boundary Condition Object
  SunExposed,                             !- Sun Exposure
  WindExposed,                            !- Wind Exposure
  ,                                       !- View Factor to Ground
  ,                                       !- Number of Vertices
  0, 0, 3,                                !- X,Y,Z Vertex 1 {m}
  0, 5, 3,                                !- X,Y,Z Vertex 2 {m}
  -3.2, 5, 3,                             !- X,Y,Z Vertex 3 {m}
  -3.2, 0, 3;                             !- X,Y,Z Vertex 4 {m}

People,
  People 2,                               !- Name
  REC2,                                   !- Zone or ZoneList or Space or SpaceList Name
  Persona_durmiendo,                      !- Number of People Schedule Name
  People,                                 !- Number of People Calculation Method
  2,                                      !- Number of People
  ,                                       !- People per Floor Area {person/m2}
  ,                                       !- Floor Area per Person {m2/person}
  0.3,                                    !- Fraction Radiant
  ,                                       !- Sensible Heat Fraction
  durmiendo;                              !- Activity Level Schedule Name

ScheduleTypeLimits,
  Fractional,                             !- Name
  0,                                      !- Lower Limit Value {BasedOnField A3}
  1,                                      !- Upper Limit Value {BasedOnField A3}
  Continuous;                             !- Numeric Type

Schedule:Day:Interval,
  Schedule Day 8,                         !- Name
  Fractional,                             !- Schedule Type Limits Name
  No,                                     !- Interpolate to Timestep
  06:00,                                  !- Time 1 {hh:mm}
  1,                                      !- Value Until Time 1
  20:00,                                  !- Time 2 {hh:mm}
  0,                                      !- Value Until Time 2
  24:00,                                  !- Time 3 {hh:mm}
  1;                                      !- Value Until Time 3

Schedule:Week:Daily,
  Persona_durmiendo Week Rule - Jan1-Dec31, !- Name
  Schedule Day 8,                         !- Sunday Schedule:Day Name
  Schedule Day 8,                         !- Monday Schedule:Day Name
  Schedule Day 8,                         !- Tuesday Schedule:Day Name
  Schedule Day 8,                         !- Wednesday Schedule:Day Name
  Schedule Day 8,                         !- Thursday Schedule:Day Name
  Schedule Day 8,                         !- Friday Schedule:Day Name
  Schedule Day 8,                         !- Saturday Schedule:Day Name
  Schedule Day 8,                         !- Holiday Schedule:Day Name
  Schedule Day 8,                         !- SummerDesignDay Schedule:Day Name
  Schedule Day 8,                         !- WinterDesignDay Schedule:Day Name
  Schedule Day 8,                         !- CustomDay1 Schedule:Day Name
  Schedule Day 8;                         !- CustomDay2 Schedule:Day Name

Schedule:Year,
  Persona_durmiendo,                      !- Name
  Fractional,                             !- Schedule Type Limits Name
  Persona_durmiendo Week Rule - Jan1-Dec31, !- Schedule:Week Name 1
  1,                                      !- Start Month 1
  1,                                      !- Start Day 1
  12,                                     !- End Month 1
  31;                                     !- End Day 1

ScheduleTypeLimits,
  ActivityLevel,                          !- Name
  0,                                      !- Lower Limit Value {BasedOnField A3}
  ,                                       !- Upper Limit Value {BasedOnField A3}
  Continuous,                             !- Numeric Type
  activitylevel;                          !- Unit Type

Schedule:Day:Interval,
  Schedule Day 6,                         !- Name
  ActivityLevel,                          !- Schedule Type Limits Name
  No,                                     !- Interpolate to Timestep
  24:00,                                  !- Time 1 {hh:mm}
  72;                                     !- Value Until Time 1

Schedule:Week:Daily,
  durmiendo Week Rule - Jan1-Dec31,       !- Name
  Schedule Day 6,                         !- Sunday Schedule:Day Name
  Schedule Day 6,                         !- Monday Schedule:Day Name
  Schedule Day 6,                         !- Tuesday Schedule:Day Name
  Schedule Day 6,                         !- Wednesday Schedule:Day Name
  Schedule Day 6,                         !- Thursday Schedule:Day Name
  Schedule Day 6,                         !- Friday Schedule:Day Name
  Schedule Day 6,                         !- Saturday Schedule:Day Name
  Schedule Day 6,                         !- Holiday Schedule:Day Name
  Schedule Day 6,                         !- SummerDesignDay Schedule:Day Name
  Schedule Day 6,                         !- WinterDesignDay Schedule:Day Name
  Schedule Day 6,                         !- CustomDay1 Schedule:Day Name
  Schedule Day 6;                         !- CustomDay2 Schedule:Day Name

Schedule:Year,
  durmiendo,                              !- Name
  ActivityLevel,                          !- Schedule Type Limits Name
  durmiendo Week Rule - Jan1-Dec31,       !- Schedule:Week Name 1
  1,                                      !- Start Month 1
  1,                                      !- Start Day 1
  12,                                     !- End Month 1
  31;                                     !- End Day 1

ZoneControl:Thermostat,
  Bedroom Thermostat,                     !- Name
  Bedroom,                                !- Zone or ZoneList Name
  Bedroom Thermostat Schedule,            !- Control Type Schedule Name
  ThermostatSetpoint:DualSetpoint,        !- Control 1 Object Type
  Thermostat Setpoint Dual Setpoint 1,    !- Control 1 Name
  ,                                       !- Control 2 Object Type
  ,                                       !- Control 2 Name
  ,                                       !- Control 3 Object Type
  ,                                       !- Control 3 Name
  ,                                       !- Control 4 Object Type
  ,                                       !- Control 4 Name
  0;                                      !- Temperature Difference Between Cutout And Setpoint {deltaC}

Schedule:Compact,
  Bedroom Thermostat Schedule,            !- Name
  Bedroom Thermostat Schedule Type Limits, !- Schedule Type Limits Name
  Through: 12/31,                         !- Field 1
  For: AllDays,                           !- Field 2
  Until: 24:00,                           !- Field 3
  4;                                      !- Field 4

ScheduleTypeLimits,
  Bedroom Thermostat Schedule Type Limits, !- Name
  0,                                      !- Lower Limit Value {BasedOnField A3}
  4,                                      !- Upper Limit Value {BasedOnField A3}
  DISCRETE;                               !- Numeric Type

ThermostatSetpoint:DualSetpoint,
  Thermostat Setpoint Dual Setpoint 1,    !- Name
  25,                                     !- Heating Setpoint Temperature Schedule Name
  25;                                     !- Cooling Setpoint Temperature Schedule Name

ScheduleTypeLimits,
  Temperature 4,                          !- Name
  ,                                       !- Lower Limit Value {BasedOnField A3}
  ,                                       !- Upper Limit Value {BasedOnField A3}
  Continuous,                             !- Numeric Type
  temperature;                            !- Unit Type

Schedule:Day:Interval,
  Schedule Day 3,                         !- Name
  Temperature 4,                          !- Schedule Type Limits Name
  No,                                     !- Interpolate to Timestep
  24:00,                                  !- Time 1 {hh:mm}
  25;                                     !- Value Until Time 1

Schedule:Week:Daily,
  25 Week Rule - Jan1-Dec31,              !- Name
  Schedule Day 3,                         !- Sunday Schedule:Day Name
  Schedule Day 3,                         !- Monday Schedule:Day Name
  Schedule Day 3,                         !- Tuesday Schedule:Day Name
  Schedule Day 3,                         !- Wednesday Schedule:Day Name
  Schedule Day 3,                         !- Thursday Schedule:Day Name
  Schedule Day 3,                         !- Friday Schedule:Day Name
  Schedule Day 3,                         !- Saturday Schedule:Day Name
  Schedule Day 3,                         !- Holiday Schedule:Day Name
  Schedule Day 3,                         !- SummerDesignDay Schedule:Day Name